PHYSICAL_PROBLEM = EULER

MATH_PROBLEM = DIRECT

RESTART_SOL = NO

MACH_NUMBER = 2.0

AoA = 5.0

SIDESLIP_ANGLE = 0.0

FREESTREAM_PRESSURE = 101325.0

FREESTREAM_TEMPERATURE = 288.15

REF_ORIGIN_MOMENT_X = 0.25

REF_ORIGIN_MOMENT_Y = 0.00

REF_ORIGIN_MOMENT_Z = 0.00

REF_LENGTH_MOMENT = 1.0

REF_AREA = 179.125

REF_DIMENSIONALIZATION = FREESTREAM_VEL_EQ_ONE

MARKER_EULER = ( VEHICLE )

MARKER_FAR = ( FARFIELD )

MARKER_SYM = ( SYMPLANE )

MARKER_PLOTTING = ( VEHICLE )

MARKER_MONITORING = ( VEHICLE )

MARKER_DESIGNING = ( VEHICLE )

NUM_METHOD_GRAD = WEIGHTED_LEAST_SQUARES

OBJECTIVE_FUNCTION = DRAG

CFL_NUMBER = 5.0

CFL_ADAPT = YES

CFL_ADAPT_PARAM = ( 1.5, 0.5, 1.0, 100.0 )

RK_ALPHA_COEFF = ( 0.66667, 0.66667, 1.000000 )

EXT_ITER = 99999

LINEAR_SOLVER = FGMRES

LINEAR_SOLVER_ERROR = 1E-6

LINEAR_SOLVER_ITER = 2

REF_ELEM_LENGTH = 0.1

LIMITER_COEFF = 0.3

SHARP_EDGES_COEFF = 3.0

REF_SHARP_EDGES = 3.0

SENS_REMOVE_SHARP = YES

MGLEVEL = 3

MGCYCLE = W_CYCLE

MG_PRE_SMOOTH = ( 1, 2, 3, 3 )

MG_POST_SMOOTH = ( 0, 0, 0, 0 )

MG_CORRECTION_SMOOTH = ( 0, 0, 0, 0 )

MG_DAMP_RESTRICTION = 0.9

MG_DAMP_PROLONGATION = 0.9

CONV_NUM_METHOD_FLOW = JST

SPATIAL_ORDER_FLOW = 2ND_ORDER

SLOPE_LIMITER_FLOW = VENKATAKRISHNAN

AD_COEFF_FLOW = ( 0.15, 0.5, 0.02 )

TIME_DISCRE_FLOW = EULER_IMPLICIT

CONV_NUM_METHOD_ADJFLOW = JST

SPATIAL_ORDER_ADJFLOW = 2ND_ORDER

SLOPE_LIMITER_ADJFLOW = VENKATAKRISHNAN

AD_COEFF_ADJFLOW = ( 0.15, 0.0, 0.02 )

CFL_REDUCTION_ADJFLOW = 0.5

TIME_DISCRE_ADJFLOW = EULER_IMPLICIT

CONV_CRITERIA = CAUCHY

RESIDUAL_REDUCTION = 8

RESIDUAL_MINVAL = -12

STARTCONV_ITER = 25

CAUCHY_ELEMS = 100

CAUCHY_EPS = 1E-8

CAUCHY_FUNC_FLOW = DRAG

MESH_FILENAME = base.su2

MESH_OUT_FILENAME = mesh_out.su2

SOLUTION_FLOW_FILENAME = solution_flow.dat

SOLUTION_ADJ_FILENAME = solution_adj.dat

MESH_FORMAT = SU2

OUTPUT_FORMAT = TECPLOT

CONV_FILENAME = history

BREAKDOWN_FILENAME = base_forces_breakdown.dat

RESTART_FLOW_FILENAME = base_restart_flow.dat

RESTART_ADJ_FILENAME = restart_adj.dat

VOLUME_FLOW_FILENAME = base_flow

VOLUME_ADJ_FILENAME = adjoint

GRAD_OBJFUNC_FILENAME = of_grad.dat

SURFACE_FLOW_FILENAME = base_surface_flow

SURFACE_ADJ_FILENAME = surface_adjoint

WRT_SOL_FREQ = 1000

WRT_CON_FREQ = 1

